<?xml version="1.0" encoding="UTF-8"?>

<!-- generated on 2025-11-01 16:21:47 by Eclipse SUMO netconvert Version 1.24.0
<netconvertConfiguration xmlns:xsi="http://www.w3.org/2001/XMLSchema-instance" xsi:noNamespaceSchemaLocation="http://sumo.dlr.de/xsd/netconvertConfiguration.xsd">

    <input>
        <node-files value="grid.nod.xml"/>
        <edge-files value="grid.edg.xml"/>
    </input>

    <output>
        <output-file value="grid.net.xml"/>
    </output>

</netconvertConfiguration>
-->

<net version="1.20" junctionCornerDetail="5" limitTurnSpeed="5.50" xmlns:xsi="http://www.w3.org/2001/XMLSchema-instance" xsi:noNamespaceSchemaLocation="http://sumo.dlr.de/xsd/net_file.xsd">

    <location netOffset="0.00,0.00" convBoundary="0.00,0.00,500.00,500.00" origBoundary="0.00,0.00,500.00,500.00" projParameter="!"/>

    <edge id=":J1_0" function="internal">
        <lane id=":J1_0_0" index="0" speed="6.51" length="9.03" shape="245.20,260.40 244.85,257.95 243.80,256.20 242.05,255.15 239.60,254.80"/>
    </edge>
    <edge id=":J1_1" function="internal">
        <lane id=":J1_1_0" index="0" speed="11.11" length="20.80" shape="245.20,260.40 245.20,239.60"/>
        <lane id=":J1_1_1" index="1" speed="11.11" length="20.80" shape="248.40,260.40 248.40,239.60"/>
    </edge>
    <edge id=":J1_3" function="internal">
        <lane id=":J1_3_0" index="0" speed="9.26" length="5.01" shape="248.40,260.40 249.11,255.44"/>
    </edge>
    <edge id=":J1_4" function="internal">
        <lane id=":J1_4_0" index="0" speed="3.65" length="1.44" shape="248.40,260.40 249.20,259.20"/>
    </edge>
    <edge id=":J1_20" function="internal">
        <lane id=":J1_20_0" index="0" speed="9.26" length="14.34" shape="249.11,255.44 249.15,255.15 251.40,251.40 255.15,249.15 260.40,248.40"/>
    </edge>
    <edge id=":J1_21" function="internal">
        <lane id=":J1_21_0" index="0" speed="3.65" length="3.23" shape="249.20,259.20 250.00,258.80 250.80,259.20 251.60,260.40"/>
    </edge>
    <edge id=":J1_5" function="internal">
        <lane id=":J1_5_0" index="0" speed="6.51" length="9.03" shape="260.40,254.80 257.95,255.15 256.20,256.20 255.15,257.95 254.80,260.40"/>
    </edge>
    <edge id=":J1_6" function="internal">
        <lane id=":J1_6_0" index="0" speed="11.11" length="20.80" shape="260.40,254.80 239.60,254.80"/>
        <lane id=":J1_6_1" index="1" speed="11.11" length="20.80" shape="260.40,251.60 239.60,251.60"/>
    </edge>
    <edge id=":J1_8" function="internal">
        <lane id=":J1_8_0" index="0" speed="9.26" length="5.01" shape="260.40,251.60 255.44,250.89"/>
    </edge>
    <edge id=":J1_9" function="internal">
        <lane id=":J1_9_0" index="0" speed="3.65" length="1.44" shape="260.40,251.60 259.20,250.80"/>
    </edge>
    <edge id=":J1_22" function="internal">
        <lane id=":J1_22_0" index="0" speed="9.26" length="14.34" shape="255.44,250.89 255.15,250.85 251.40,248.60 249.15,244.85 248.40,239.60"/>
    </edge>
    <edge id=":J1_23" function="internal">
        <lane id=":J1_23_0" index="0" speed="3.65" length="3.23" shape="259.20,250.80 258.80,250.00 259.20,249.20 260.40,248.40"/>
    </edge>
    <edge id=":J1_10" function="internal">
        <lane id=":J1_10_0" index="0" speed="6.51" length="9.03" shape="254.80,239.60 255.15,242.05 256.20,243.80 257.95,244.85 260.40,245.20"/>
    </edge>
    <edge id=":J1_11" function="internal">
        <lane id=":J1_11_0" index="0" speed="19.44" length="20.80" shape="254.80,239.60 254.80,260.40"/>
        <lane id=":J1_11_1" index="1" speed="19.44" length="20.80" shape="251.60,239.60 251.60,260.40"/>
    </edge>
    <edge id=":J1_13" function="internal">
        <lane id=":J1_13_0" index="0" speed="9.26" length="5.01" shape="251.60,239.60 250.89,244.56"/>
    </edge>
    <edge id=":J1_14" function="internal">
        <lane id=":J1_14_0" index="0" speed="3.65" length="1.44" shape="251.60,239.60 250.80,240.80"/>
    </edge>
    <edge id=":J1_24" function="internal">
        <lane id=":J1_24_0" index="0" speed="9.26" length="14.34" shape="250.89,244.56 250.85,244.85 248.60,248.60 244.85,250.85 239.60,251.60"/>
    </edge>
    <edge id=":J1_25" function="internal">
        <lane id=":J1_25_0" index="0" speed="3.65" length="3.23" shape="250.80,240.80 250.00,241.20 249.20,240.80 248.40,239.60"/>
    </edge>
    <edge id=":J1_15" function="internal">
        <lane id=":J1_15_0" index="0" speed="6.51" length="9.03" shape="239.60,245.20 242.05,244.85 243.80,243.80 244.85,242.05 245.20,239.60"/>
    </edge>
    <edge id=":J1_16" function="internal">
        <lane id=":J1_16_0" index="0" speed="19.44" length="20.80" shape="239.60,245.20 260.40,245.20"/>
        <lane id=":J1_16_1" index="1" speed="19.44" length="20.80" shape="239.60,248.40 260.40,248.40"/>
    </edge>
    <edge id=":J1_18" function="internal">
        <lane id=":J1_18_0" index="0" speed="9.26" length="5.01" shape="239.60,248.40 244.56,249.11"/>
    </edge>
    <edge id=":J1_19" function="internal">
        <lane id=":J1_19_0" index="0" speed="3.65" length="1.44" shape="239.60,248.40 240.80,249.20"/>
    </edge>
    <edge id=":J1_26" function="internal">
        <lane id=":J1_26_0" index="0" speed="9.26" length="14.34" shape="244.56,249.11 244.85,249.15 248.60,251.40 250.85,255.15 251.60,260.40"/>
    </edge>
    <edge id=":J1_27" function="internal">
        <lane id=":J1_27_0" index="0" speed="3.65" length="3.23" shape="240.80,249.20 241.20,250.00 240.80,250.80 239.60,251.60"/>
    </edge>
    <edge id=":J2_0" function="internal">
        <lane id=":J2_0_0" index="0" speed="11.11" length="20.80" shape="245.20,310.40 245.20,289.60"/>
        <lane id=":J2_0_1" index="1" speed="11.11" length="20.80" shape="248.40,310.40 248.40,289.60"/>
    </edge>
    <edge id=":J2_2" function="internal">
        <lane id=":J2_2_0" index="0" speed="9.26" length="5.01" shape="248.40,310.40 249.11,305.44"/>
    </edge>
    <edge id=":J2_3" function="internal">
        <lane id=":J2_3_0" index="0" speed="9.02" length="2.96" shape="248.40,310.40 249.13,307.53"/>
    </edge>
    <edge id=":J2_4" function="internal">
        <lane id=":J2_4_0" index="0" speed="3.65" length="1.44" shape="248.40,310.40 249.20,309.20"/>
    </edge>
    <edge id=":J2_19" function="internal">
        <lane id=":J2_19_0" index="0" speed="9.26" length="14.34" shape="249.11,305.44 249.15,305.15 251.40,301.40 255.15,299.15 260.40,298.40"/>
    </edge>
    <edge id=":J2_20" function="internal">
        <lane id=":J2_20_0" index="0" speed="9.02" length="15.37" shape="249.13,307.53 249.48,306.14 252.28,302.28 256.14,299.48 260.40,298.40"/>
    </edge>
    <edge id=":J2_21" function="internal">
        <lane id=":J2_21_0" index="0" speed="3.65" length="3.23" shape="249.20,309.20 250.00,308.80 250.80,309.20 251.60,310.40"/>
    </edge>
    <edge id=":J2_5" function="internal">
        <lane id=":J2_5_0" index="0" speed="6.51" length="9.03" shape="260.40,304.80 257.95,305.15 256.20,306.20 255.15,307.95 254.80,310.40"/>
    </edge>
    <edge id=":J2_6" function="internal">
        <lane id=":J2_6_0" index="0" speed="9.26" length="19.35" shape="260.40,301.60 255.15,300.85 251.40,298.60 249.15,294.85 248.40,289.60"/>
    </edge>
    <edge id=":J2_7" function="internal">
        <lane id=":J2_7_0" index="0" speed="3.24" length="3.20" shape="260.40,301.60 260.40,298.40"/>
    </edge>
    <edge id=":J2_8" function="internal">
        <lane id=":J2_8_0" index="0" speed="3.65" length="4.67" shape="260.40,301.60 259.20,300.80 258.80,300.00 259.20,299.20 260.40,298.40"/>
    </edge>
    <edge id=":J2_9" function="internal">
        <lane id=":J2_9_0" index="0" speed="6.51" length="9.03" shape="260.40,304.80 257.95,305.15 256.20,306.20 255.15,307.95 254.80,310.40"/>
        <lane id=":J2_9_1" index="1" speed="8.00" length="14.19" shape="260.40,301.60 256.55,302.15 253.80,303.80 252.15,306.55 251.60,310.40"/>
    </edge>
    <edge id=":J2_11" function="internal">
        <lane id=":J2_11_0" index="0" speed="9.02" length="18.33" shape="260.40,301.60 256.14,300.52 252.28,297.72 249.48,293.86 248.40,289.60"/>
    </edge>
    <edge id=":J2_12" function="internal">
        <lane id=":J2_12_0" index="0" speed="4.08" length="6.40" shape="260.40,301.60 260.40,295.20"/>
    </edge>
    <edge id=":J2_13" function="internal">
        <lane id=":J2_13_0" index="0" speed="3.65" length="2.34" shape="260.40,301.60 259.20,300.80 258.80,300.00"/>
    </edge>
    <edge id=":J2_22" function="internal">
        <lane id=":J2_22_0" index="0" speed="3.65" length="2.34" shape="258.80,300.00 259.20,299.20 260.40,298.40"/>
    </edge>
    <edge id=":J2_14" function="internal">
        <lane id=":J2_14_0" index="0" speed="6.51" length="9.03" shape="254.80,289.60 255.15,292.05 256.20,293.80 257.95,294.85 260.40,295.20"/>
    </edge>
    <edge id=":J2_15" function="internal">
        <lane id=":J2_15_0" index="0" speed="7.33" length="11.73" shape="254.80,289.60 255.15,293.45 256.20,296.20 257.95,297.85 260.40,298.40"/>
    </edge>
    <edge id=":J2_16" function="internal">
        <lane id=":J2_16_0" index="0" speed="19.44" length="20.80" shape="254.80,289.60 254.80,310.40"/>
        <lane id=":J2_16_1" index="1" speed="19.44" length="20.80" shape="251.60,289.60 251.60,310.40"/>
    </edge>
    <edge id=":J2_18" function="internal">
        <lane id=":J2_18_0" index="0" speed="3.65" length="1.44" shape="251.60,289.60 250.80,290.80"/>
    </edge>
    <edge id=":J2_23" function="internal">
        <lane id=":J2_23_0" index="0" speed="3.65" length="3.23" shape="250.80,290.80 250.00,291.20 249.20,290.80 248.40,289.60"/>
    </edge>
    <edge id=":J3_0" function="internal">
        <lane id=":J3_0_0" index="0" speed="6.51" length="9.03" shape="295.20,260.40 294.85,257.95 293.80,256.20 292.05,255.15 289.60,254.80"/>
    </edge>
    <edge id=":J3_1" function="internal">
        <lane id=":J3_1_0" index="0" speed="9.26" length="19.35" shape="298.40,260.40 299.15,255.15 301.40,251.40 305.15,249.15 310.40,248.40"/>
    </edge>
    <edge id=":J3_2" function="internal">
        <lane id=":J3_2_0" index="0" speed="3.24" length="3.20" shape="298.40,260.40 301.60,260.40"/>
    </edge>
    <edge id=":J3_3" function="internal">
        <lane id=":J3_3_0" index="0" speed="3.65" length="4.67" shape="298.40,260.40 299.20,259.20 300.00,258.80 300.80,259.20 301.60,260.40"/>
    </edge>
    <edge id=":J3_4" function="internal">
        <lane id=":J3_4_0" index="0" speed="6.51" length="9.03" shape="295.20,260.40 294.85,257.95 293.80,256.20 292.05,255.15 289.60,254.80"/>
        <lane id=":J3_4_1" index="1" speed="8.00" length="14.19" shape="298.40,260.40 297.85,256.55 296.20,253.80 293.45,252.15 289.60,251.60"/>
    </edge>
    <edge id=":J3_6" function="internal">
        <lane id=":J3_6_0" index="0" speed="9.02" length="18.33" shape="298.40,260.40 299.48,256.14 302.28,252.28 306.14,249.48 310.40,248.40"/>
    </edge>
    <edge id=":J3_7" function="internal">
        <lane id=":J3_7_0" index="0" speed="4.08" length="6.40" shape="298.40,260.40 304.80,260.40"/>
    </edge>
    <edge id=":J3_8" function="internal">
        <lane id=":J3_8_0" index="0" speed="3.65" length="2.34" shape="298.40,260.40 299.20,259.20 300.00,258.80"/>
    </edge>
    <edge id=":J3_19" function="internal">
        <lane id=":J3_19_0" index="0" speed="3.65" length="2.34" shape="300.00,258.80 300.80,259.20 301.60,260.40"/>
    </edge>
    <edge id=":J3_9" function="internal">
        <lane id=":J3_9_0" index="0" speed="6.51" length="9.03" shape="310.40,254.80 307.95,255.15 306.20,256.20 305.15,257.95 304.80,260.40"/>
    </edge>
    <edge id=":J3_10" function="internal">
        <lane id=":J3_10_0" index="0" speed="7.33" length="11.73" shape="310.40,254.80 306.55,255.15 303.80,256.20 302.15,257.95 301.60,260.40"/>
    </edge>
    <edge id=":J3_11" function="internal">
        <lane id=":J3_11_0" index="0" speed="11.11" length="20.80" shape="310.40,254.80 289.60,254.80"/>
        <lane id=":J3_11_1" index="1" speed="11.11" length="20.80" shape="310.40,251.60 289.60,251.60"/>
    </edge>
    <edge id=":J3_13" function="internal">
        <lane id=":J3_13_0" index="0" speed="3.65" length="1.44" shape="310.40,251.60 309.20,250.80"/>
    </edge>
    <edge id=":J3_20" function="internal">
        <lane id=":J3_20_0" index="0" speed="3.65" length="3.23" shape="309.20,250.80 308.80,250.00 309.20,249.20 310.40,248.40"/>
    </edge>
    <edge id=":J3_14" function="internal">
        <lane id=":J3_14_0" index="0" speed="19.44" length="20.80" shape="289.60,245.20 310.40,245.20"/>
        <lane id=":J3_14_1" index="1" speed="19.44" length="20.80" shape="289.60,248.40 310.40,248.40"/>
    </edge>
    <edge id=":J3_16" function="internal">
        <lane id=":J3_16_0" index="0" speed="9.26" length="5.01" shape="289.60,248.40 294.56,249.11"/>
    </edge>
    <edge id=":J3_17" function="internal">
        <lane id=":J3_17_0" index="0" speed="9.02" length="2.96" shape="289.60,248.40 292.47,249.13"/>
    </edge>
    <edge id=":J3_18" function="internal">
        <lane id=":J3_18_0" index="0" speed="3.65" length="1.44" shape="289.60,248.40 290.80,249.20"/>
    </edge>
    <edge id=":J3_21" function="internal">
        <lane id=":J3_21_0" index="0" speed="9.26" length="14.34" shape="294.56,249.11 294.85,249.15 298.60,251.40 300.85,255.15 301.60,260.40"/>
    </edge>
    <edge id=":J3_22" function="internal">
        <lane id=":J3_22_0" index="0" speed="9.02" length="15.37" shape="292.47,249.13 293.86,249.48 297.72,252.28 300.52,256.14 301.60,260.40"/>
    </edge>
    <edge id=":J3_23" function="internal">
        <lane id=":J3_23_0" index="0" speed="3.65" length="3.23" shape="290.80,249.20 291.20,250.00 290.80,250.80 289.60,251.60"/>
    </edge>
    <edge id=":J4_0" function="internal">
        <lane id=":J4_0_0" index="0" speed="10.36" length="24.51" shape="304.80,289.60 303.85,296.25 301.00,301.00 296.25,303.85 289.60,304.80"/>
        <lane id=":J4_0_1" index="1" speed="9.26" length="19.35" shape="301.60,289.60 300.85,294.85 298.60,298.60 294.85,300.85 289.60,301.60"/>
    </edge>
    <edge id=":J4_2" function="internal">
        <lane id=":J4_2_0" index="0" speed="9.26" length="19.35" shape="301.60,289.60 300.85,294.85 298.60,298.60 294.85,300.85 289.60,301.60"/>
    </edge>
    <edge id=":J4_3" function="internal">
        <lane id=":J4_3_0" index="0" speed="3.24" length="1.71" shape="301.60,289.60 299.89,289.60"/>
    </edge>
    <edge id=":J4_4" function="internal">
        <lane id=":J4_4_0" index="0" speed="3.65" length="1.44" shape="301.60,289.60 300.80,290.80"/>
    </edge>
    <edge id=":J4_20" function="internal">
        <lane id=":J4_20_0" index="0" speed="3.24" length="1.49" shape="299.89,289.60 298.40,289.60"/>
    </edge>
    <edge id=":J4_21" function="internal">
        <lane id=":J4_21_0" index="0" speed="3.65" length="3.23" shape="300.80,290.80 300.00,291.20 299.20,290.80 298.40,289.60"/>
    </edge>
    <edge id=":J4_5" function="internal">
        <lane id=":J4_5_0" index="0" speed="10.36" length="24.51" shape="304.80,289.60 303.85,296.25 301.00,301.00 296.25,303.85 289.60,304.80"/>
        <lane id=":J4_5_1" index="1" speed="9.26" length="19.35" shape="301.60,289.60 300.85,294.85 298.60,298.60 294.85,300.85 289.60,301.60"/>
    </edge>
    <edge id=":J4_7" function="internal">
        <lane id=":J4_7_0" index="0" speed="9.26" length="19.35" shape="301.60,289.60 300.85,294.85 298.60,298.60 294.85,300.85 289.60,301.60"/>
    </edge>
    <edge id=":J4_8" function="internal">
        <lane id=":J4_8_0" index="0" speed="4.08" length="6.40" shape="301.60,289.60 295.20,289.60"/>
    </edge>
    <edge id=":J4_9" function="internal">
        <lane id=":J4_9_0" index="0" speed="3.65" length="1.44" shape="301.60,289.60 300.80,290.80"/>
    </edge>
    <edge id=":J4_22" function="internal">
        <lane id=":J4_22_0" index="0" speed="3.65" length="3.23" shape="300.80,290.80 300.00,291.20 299.20,290.80 298.40,289.60"/>
    </edge>
    <edge id=":J4_10" function="internal">
        <lane id=":J4_10_0" index="0" speed="6.51" length="9.03" shape="289.60,295.20 292.05,294.85 293.80,293.80 294.85,292.05 295.20,289.60"/>
        <lane id=":J4_10_1" index="1" speed="8.00" length="14.19" shape="289.60,298.40 293.45,297.85 296.20,296.20 297.85,293.45 298.40,289.60"/>
    </edge>
    <edge id=":J4_12" function="internal">
        <lane id=":J4_12_0" index="0" speed="8.00" length="14.19" shape="289.60,298.40 293.45,297.85 296.20,296.20 297.85,293.45 298.40,289.60"/>
    </edge>
    <edge id=":J4_13" function="internal">
        <lane id=":J4_13_0" index="0" speed="3.24" length="1.46" shape="289.60,298.40 289.60,299.86"/>
    </edge>
    <edge id=":J4_14" function="internal">
        <lane id=":J4_14_0" index="0" speed="3.65" length="1.30" shape="289.60,298.40 290.68,299.12"/>
    </edge>
    <edge id=":J4_23" function="internal">
        <lane id=":J4_23_0" index="0" speed="3.24" length="1.74" shape="289.60,299.86 289.60,301.60"/>
    </edge>
    <edge id=":J4_24" function="internal">
        <lane id=":J4_24_0" index="0" speed="3.65" length="3.37" shape="290.68,299.12 290.80,299.20 291.20,300.00 290.80,300.80 289.60,301.60"/>
    </edge>
    <edge id=":J4_15" function="internal">
        <lane id=":J4_15_0" index="0" speed="6.51" length="9.03" shape="289.60,295.20 292.05,294.85 293.80,293.80 294.85,292.05 295.20,289.60"/>
        <lane id=":J4_15_1" index="1" speed="8.00" length="14.19" shape="289.60,298.40 293.45,297.85 296.20,296.20 297.85,293.45 298.40,289.60"/>
    </edge>
    <edge id=":J4_17" function="internal">
        <lane id=":J4_17_0" index="0" speed="8.00" length="14.19" shape="289.60,298.40 293.45,297.85 296.20,296.20 297.85,293.45 298.40,289.60"/>
    </edge>
    <edge id=":J4_18" function="internal">
        <lane id=":J4_18_0" index="0" speed="4.08" length="6.40" shape="289.60,298.40 289.60,304.80"/>
    </edge>
    <edge id=":J4_19" function="internal">
        <lane id=":J4_19_0" index="0" speed="3.65" length="1.30" shape="289.60,298.40 290.68,299.12"/>
    </edge>
    <edge id=":J4_25" function="internal">
        <lane id=":J4_25_0" index="0" speed="3.65" length="3.37" shape="290.68,299.12 290.80,299.20 291.20,300.00 290.80,300.80 289.60,301.60"/>
    </edge>
    <edge id=":N1_0" function="internal">
        <lane id=":N1_0_0" index="0" speed="3.65" length="4.67" shape="0.00,251.60 -1.20,250.80 -1.60,250.00 -1.20,249.20 0.00,248.40"/>
    </edge>
    <edge id=":N2_0" function="internal">
        <lane id=":N2_0_0" index="0" speed="3.65" length="4.67" shape="500.00,248.40 501.20,249.20 501.60,250.00 501.20,250.80 500.00,251.60"/>
    </edge>
    <edge id=":N3_0" function="internal">
        <lane id=":N3_0_0" index="0" speed="3.65" length="4.67" shape="248.40,0.00 249.20,-1.20 250.00,-1.60 250.80,-1.20 251.60,0.00"/>
    </edge>
    <edge id=":N4_0" function="internal">
        <lane id=":N4_0_0" index="0" speed="3.65" length="4.67" shape="251.60,500.00 250.80,501.20 250.00,501.60 249.20,501.20 248.40,500.00"/>
    </edge>

    <edge id="E1" from="N1" to="J1" priority="78">
        <lane id="E1_0" index="0" speed="19.44" length="239.60" shape="0.00,245.20 239.60,245.20"/>
        <lane id="E1_1" index="1" speed="19.44" length="239.60" shape="0.00,248.40 239.60,248.40"/>
    </edge>
    <edge id="E10" from="J4" to="J3" priority="78">
        <lane id="E10_0" index="0" speed="19.44" length="29.20" shape="295.20,289.60 295.20,260.40"/>
        <lane id="E10_1" index="1" speed="19.44" length="29.20" shape="298.40,289.60 298.40,260.40"/>
    </edge>
    <edge id="E2" from="N3" to="J1" priority="78">
        <lane id="E2_0" index="0" speed="19.44" length="239.60" shape="254.80,0.00 254.80,239.60"/>
        <lane id="E2_1" index="1" speed="19.44" length="239.60" shape="251.60,0.00 251.60,239.60"/>
    </edge>
    <edge id="E3" from="J1" to="J2" priority="78">
        <lane id="E3_0" index="0" speed="19.44" length="29.20" shape="254.80,260.40 254.80,289.60"/>
        <lane id="E3_1" index="1" speed="19.44" length="29.20" shape="251.60,260.40 251.60,289.60"/>
    </edge>
    <edge id="E4" from="J1" to="J3" priority="78">
        <lane id="E4_0" index="0" speed="19.44" length="29.20" shape="260.40,245.20 289.60,245.20"/>
        <lane id="E4_1" index="1" speed="19.44" length="29.20" shape="260.40,248.40 289.60,248.40"/>
    </edge>
    <edge id="E5" from="J2" to="N4" priority="78">
        <lane id="E5_0" index="0" speed="19.44" length="189.60" shape="254.80,310.40 254.80,500.00"/>
        <lane id="E5_1" index="1" speed="19.44" length="189.60" shape="251.60,310.40 251.60,500.00"/>
    </edge>
    <edge id="E6" from="J2" to="J4" priority="78">
        <lane id="E6_0" index="0" speed="19.44" length="29.20" shape="260.40,295.20 289.60,295.20"/>
        <lane id="E6_1" index="1" speed="19.44" length="29.20" shape="260.40,298.40 289.60,298.40"/>
    </edge>
    <edge id="E7" from="J3" to="J4" priority="78">
        <lane id="E7_0" index="0" speed="19.44" length="29.20" shape="304.80,260.40 304.80,289.60"/>
        <lane id="E7_1" index="1" speed="19.44" length="29.20" shape="301.60,260.40 301.60,289.60"/>
    </edge>
    <edge id="E8" from="J3" to="N2" priority="78">
        <lane id="E8_0" index="0" speed="19.44" length="189.60" shape="310.40,245.20 500.00,245.20"/>
        <lane id="E8_1" index="1" speed="19.44" length="189.60" shape="310.40,248.40 500.00,248.40"/>
    </edge>
    <edge id="E9" from="J4" to="J2" priority="78">
        <lane id="E9_0" index="0" speed="19.44" length="29.20" shape="289.60,304.80 260.40,304.80"/>
        <lane id="E9_1" index="1" speed="19.44" length="29.20" shape="289.60,301.60 260.40,301.60"/>
    </edge>
    <edge id="O1" from="J1" to="N1" priority="46">
        <lane id="O1_0" index="0" speed="11.11" length="239.60" shape="239.60,254.80 0.00,254.80"/>
        <lane id="O1_1" index="1" speed="11.11" length="239.60" shape="239.60,251.60 0.00,251.60"/>
    </edge>
    <edge id="O10" from="J3" to="J4" priority="46">
        <lane id="O10_0" index="0" speed="11.11" length="29.20" shape="304.80,260.40 304.80,289.60"/>
        <lane id="O10_1" index="1" speed="11.11" length="29.20" shape="301.60,260.40 301.60,289.60"/>
    </edge>
    <edge id="O2" from="J1" to="N3" priority="46">
        <lane id="O2_0" index="0" speed="11.11" length="239.60" shape="245.20,239.60 245.20,0.00"/>
        <lane id="O2_1" index="1" speed="11.11" length="239.60" shape="248.40,239.60 248.40,0.00"/>
    </edge>
    <edge id="O3" from="J2" to="J1" priority="46">
        <lane id="O3_0" index="0" speed="11.11" length="29.20" shape="245.20,289.60 245.20,260.40"/>
        <lane id="O3_1" index="1" speed="11.11" length="29.20" shape="248.40,289.60 248.40,260.40"/>
    </edge>
    <edge id="O4" from="J3" to="J1" priority="46">
        <lane id="O4_0" index="0" speed="11.11" length="29.20" shape="289.60,254.80 260.40,254.80"/>
        <lane id="O4_1" index="1" speed="11.11" length="29.20" shape="289.60,251.60 260.40,251.60"/>
    </edge>
    <edge id="O5" from="N4" to="J2" priority="46">
        <lane id="O5_0" index="0" speed="11.11" length="189.60" shape="245.20,500.00 245.20,310.40"/>
        <lane id="O5_1" index="1" speed="11.11" length="189.60" shape="248.40,500.00 248.40,310.40"/>
    </edge>
    <edge id="O6" from="J4" to="J2" priority="46">
        <lane id="O6_0" index="0" speed="11.11" length="29.20" shape="289.60,304.80 260.40,304.80"/>
        <lane id="O6_1" index="1" speed="11.11" length="29.20" shape="289.60,301.60 260.40,301.60"/>
    </edge>
    <edge id="O7" from="J4" to="J3" priority="46">
        <lane id="O7_0" index="0" speed="11.11" length="29.20" shape="295.20,289.60 295.20,260.40"/>
        <lane id="O7_1" index="1" speed="11.11" length="29.20" shape="298.40,289.60 298.40,260.40"/>
    </edge>
    <edge id="O8" from="N2" to="J3" priority="46">
        <lane id="O8_0" index="0" speed="11.11" length="189.60" shape="500.00,254.80 310.40,254.80"/>
        <lane id="O8_1" index="1" speed="11.11" length="189.60" shape="500.00,251.60 310.40,251.60"/>
    </edge>
    <edge id="O9" from="J2" to="J4" priority="46">
        <lane id="O9_0" index="0" speed="11.11" length="29.20" shape="260.40,295.20 289.60,295.20"/>
        <lane id="O9_1" index="1" speed="11.11" length="29.20" shape="260.40,298.40 289.60,298.40"/>
    </edge>

    <tlLogic id="J1" type="static" programID="0" offset="0">
        <phase duration="40" state="GGGggrrrrrGGGggrrrrr"/>
        <phase duration="5"  state="yyyyyrrrrryyyyyrrrrr"/>
        <phase duration="40" state="rrrrrGGGggrrrrrGGGgg"/>
        <phase duration="5"  state="rrrrryyyyyrrrrryyyyy"/>
    </tlLogic>
    <tlLogic id="J2" type="static" programID="0" offset="0">
        <phase duration="20" state="GGgggrrrrrrrrrGGGGg"/>
        <phase duration="5"  state="GGgggrrrrrrrrryyyyy"/>
        <phase duration="6"  state="GGGGGrrrrrrrrrrrrrr"/>
        <phase duration="5"  state="yyyyyrrrrrrrrrrrrrr"/>
        <phase duration="22" state="rrrrrGGGgrrrGrrrrrr"/>
        <phase duration="5"  state="rrrrryyyyrrrGrrrrrr"/>
        <phase duration="22" state="rrrrrrrrrGGGGgGrrrr"/>
        <phase duration="5"  state="rrrrrrrrryyyyyGrrrr"/>
    </tlLogic>
    <tlLogic id="J3" type="static" programID="0" offset="0">
        <phase duration="20" state="rrrrrrrrrGGGGgGGggg"/>
        <phase duration="5"  state="rrrrrrrrryyyyyGGggg"/>
        <phase duration="6"  state="rrrrrrrrrrrrrrGGGGG"/>
        <phase duration="5"  state="rrrrrrrrrrrrrryyyyy"/>
        <phase duration="22" state="GGGgrrrGrrrrrrrrrrr"/>
        <phase duration="5"  state="yyyyrrrGrrrrrrrrrrr"/>
        <phase duration="22" state="rrrrGGGGgGrrrrrrrrr"/>
        <phase duration="5"  state="rrrryyyyyGrrrrrrrrr"/>
    </tlLogic>
    <tlLogic id="J4" type="static" programID="0" offset="0">
        <phase duration="35" state="GGGggrrrrrGGGggrrrrr"/>
        <phase duration="5"  state="yyyggrrrrryyyggrrrrr"/>
        <phase duration="6"  state="rrrGGrrrrrrrrGGrrrrr"/>
        <phase duration="5"  state="rrryyrrrrrrrryyrrrrr"/>
        <phase duration="34" state="rrrrrGGgGgrrrrrGGgGg"/>
        <phase duration="5"  state="rrrrryyyyyrrrrryyyyy"/>
    </tlLogic>

    <junction id="J1" type="traffic_light" x="250.00" y="250.00" incLanes="O3_0 O3_1 O4_0 O4_1 E2_0 E2_1 E1_0 E1_1" intLanes=":J1_0_0 :J1_1_0 :J1_1_1 :J1_20_0 :J1_21_0 :J1_5_0 :J1_6_0 :J1_6_1 :J1_22_0 :J1_23_0 :J1_10_0 :J1_11_0 :J1_11_1 :J1_24_0 :J1_25_0 :J1_15_0 :J1_16_0 :J1_16_1 :J1_26_0 :J1_27_0" shape="243.60,260.40 256.40,260.40 256.84,258.18 257.40,257.40 258.18,256.84 259.18,256.51 260.40,256.40 260.40,243.60 258.18,243.16 257.40,242.60 256.84,241.82 256.51,240.82 256.40,239.60 243.60,239.60 243.16,241.82 242.60,242.60 241.82,243.16 240.82,243.49 239.60,243.60 239.60,256.40 241.82,256.84 242.60,257.40 243.16,258.18 243.49,259.18">
        <request index="0"  response="00000000000000000000" foes="00000000000011000000" cont="0"/>
        <request index="1"  response="01000000000100000000" foes="01111110000111000000" cont="0"/>
        <request index="2"  response="01000000000100000000" foes="01111110000111000000" cont="0"/>
        <request index="3"  response="01000001100100000000" foes="01110001101111000000" cont="1"/>
        <request index="4"  response="01000001100000000000" foes="01000001100000000000" cont="1"/>
        <request index="5"  response="00000001100000000000" foes="00000001100000000000" cont="0"/>
        <request index="6"  response="00000011100000001111" foes="11000011100000001111" cont="0"/>
        <request index="7"  response="00000011100000001111" foes="11000011100000001111" cont="0"/>
        <request index="8"  response="00110011100000001110" foes="00110111100000001110" cont="1"/>
        <request index="9"  response="00110000000000001000" foes="00110000000000001000" cont="1"/>
        <request index="10" response="00000000000000000000" foes="00110000000000000000" cont="0"/>
        <request index="11" response="01000000000100000000" foes="01110000000111111000" cont="0"/>
        <request index="12" response="01000000000100000000" foes="01110000000111111000" cont="0"/>
        <request index="13" response="01000000000100000110" foes="11110000000111000110" cont="1"/>
        <request index="14" response="00000000000100000110" foes="00000000000100000110" cont="1"/>
        <request index="15" response="00000000000000000110" foes="00000000000000000110" cont="0"/>
        <request index="16" response="00000011110000001110" foes="00000011111100001110" cont="0"/>
        <request index="17" response="00000011110000001110" foes="00000011111100001110" cont="0"/>
        <request index="18" response="00000011100011001110" foes="00000011100011011110" cont="1"/>
        <request index="19" response="00000010000011000000" foes="00000010000011000000" cont="1"/>
    </junction>
    <junction id="J2" type="traffic_light" x="250.00" y="300.00" incLanes="O5_0 O5_1 E9_0 E9_1 O6_0 O6_1 E3_0 E3_1" intLanes=":J2_0_0 :J2_0_1 :J2_19_0 :J2_20_0 :J2_21_0 :J2_5_0 :J2_6_0 :J2_7_0 :J2_8_0 :J2_9_0 :J2_9_1 :J2_11_0 :J2_12_0 :J2_22_0 :J2_14_0 :J2_15_0 :J2_16_0 :J2_16_1 :J2_23_0" shape="243.60,310.40 256.40,310.40 256.84,308.18 257.40,307.40 258.18,306.84 259.18,306.51 260.40,306.40 260.40,293.60 258.18,293.16 257.40,292.60 256.84,291.82 256.51,290.82 256.40,289.60 243.60,289.60">
        <request index="0"  response="0000000000000000000" foes="1000000100001000000" cont="0"/>
        <request index="1"  response="0000000000000000000" foes="1000000100001000000" cont="0"/>