<nodes>
    <node id="N1" x="0.0"  y="250.0" type="priority"/>
    <node id="N2" x="500.0" y="250.0" type="priority"/>
    <node id="N3" x="250.0"  y="0.0"  type="priority"/>
    <node id="N4" x="250.0" y="500.0" type="priority"/>

    <node id="J1" x="250.0" y="250.0" type="traffic_light"/>
    <node id="J2" x="250.0" y="300.0" type="traffic_light"/>
    <node id="J3" x="300.0" y="250.0" type="traffic_light"/>
    <node id="J4" x="300.0" y="300.0" type="traffic_light"/>
</nodes>